36
Dodecamer (n=12)
O        1.7979951700   -2.8718936000   -0.9137402000
H        1.5818745200   -2.9053385700    0.0537204300
H        2.4588081200   -3.5531945700   -1.0664022500
O        0.9673060400   -2.7591122000    1.6279879900
H        0.0053258500   -2.8917917700    1.5676817300
H        1.0702277200   -1.8389876200    1.9216778300
O        1.6538016800   -0.0700664200   -1.0197452400
H        0.7281051800   -0.0618601400   -1.3487214200
H        1.9505764200   -0.9883306900   -1.1455835400
O        1.0223580900    0.0717553000    1.6557281500
H        1.3475707900    0.0674404200    0.7285831800
H        1.1462721800    0.9894100300    1.9548252000
O       -1.0222325800    0.0671484100   -1.6523102500
H       -1.1467605700    0.9829516000   -1.9567571700
H       -1.3465033500    0.0681011700   -0.7248212900
O       -1.6530365700   -0.0695373400    1.0232892200
H       -0.7270357300   -0.0657541500    1.3515686700
H       -1.9527007300   -0.9874531100    1.1446467800
O       -1.7971407500   -2.8722508200    0.9148922500
H       -1.5801363000   -2.9095605300   -0.0522813200
H       -2.4572802600   -3.5536305400    1.0701009900
O       -0.9671460400   -2.7626893300   -1.6269536600
H       -0.0051175700   -2.8947728400   -1.5667997100
H       -1.0708786900   -1.8413953500   -1.9169351700
O       -0.9104648400    2.8698470800   -1.8020586500
H        0.0563242800    2.9039411200   -1.5831425400
H       -1.0623129000    3.5539327000   -2.4601945900
O        1.6297653500    2.7596388100   -0.9649250800
H        1.5668145900    2.8929188200   -0.0031659900
H        1.9243392100    1.8395882900   -1.0661172400
O        0.9096236500    2.8758473200    1.7970610000
H       -0.0574818600    2.9078914800    1.5792748400
H        1.0610388100    3.5606516200    2.4545296500
O       -1.6306474500    2.7605772000    0.9607517500
H       -1.5668008800    2.8910780900   -0.0013189700
H       -1.9221019200    1.8398332900    1.0647517500
