33
Endecamer (n=11), 551 Isomer
O       -0.4467916100   -3.1180782900    0.0751261600
H       -0.4708370700   -4.0701646200    0.2048420300
H        0.4231385900   -2.8064707300    0.4415692100
O       -2.3525134500    0.2124140700   -1.6029256400
H       -3.0594599200    0.4284360400   -2.2175158400
H       -2.1191722000    1.0659765400   -1.1413767300
O        1.3171066500    0.3042688900    2.3399087400
H        0.3501554800    0.4769019800    2.4027892500
H        1.6723848600    0.4614425700    3.2195121600
O       -1.7368443600    2.3266291300   -0.1633706300
H       -0.9205545400    2.8078503000   -0.4188859200
H       -1.5626243900    1.9686296600    0.7210743300
O       -2.3841132300   -1.2372657000    0.7986825300
H       -2.5400904300   -0.8332576000   -0.0750491900
H       -1.7722844500   -1.9756487400    0.6201091200
O       -0.1732470700   -1.4515881300   -2.2267696800
H       -0.3652049900   -2.1500736100   -1.5787489200
H       -0.9046802600   -0.8152050100   -2.1211309600
O       -1.3674820200    0.7192209400    2.2279754700
H       -1.7667036800   -0.0589234700    1.7430996600
H       -1.9331931800    0.8637651300    2.9923189800
O        2.3697503100    1.6109023500   -0.0028576000
H        2.4019553800    0.8513169300   -0.6116730600
H        2.0620115300    1.2329244800    0.8366092200
O        0.6275902900    3.4710287500   -0.8943306200
H        0.9489465400    4.3419816400   -0.6484464500
H        1.3167415600    2.8369102400   -0.5865500200
O        1.8540782800   -2.0732957100    0.8795529600
H        2.2012621900   -1.6790617900    0.0590679700
H        1.7083284100   -1.3128490800    1.4690987900
O        2.2990757400   -0.7400250600   -1.5645374200
H        2.8944076700   -0.9067315000   -2.3006480600
H        1.3856688200   -0.9409637900   -1.8993498800
