21
Heptamer (n=7)
O       -0.4630650700   -2.8456014300    0.3471298000
H       -0.3118544800   -3.7472364200    0.0523474600
H       -0.6025998300   -2.3157534200   -0.4703854800
O        1.8448906200    0.2506739600   -1.2002715200
H        2.6351509900    0.4182438600   -1.7212166200
H        1.4622331500    1.1347608600   -0.9900660700
O       -0.3608938500    1.0626773900    1.8750303700
H       -0.4405808900    1.2162166300    2.8203994700
H        0.2424956100    0.2729176600    1.7703378700
O        1.2577026800   -0.9428210800    1.3483319400
H        0.7362411300   -1.7303658500    1.0904158400
H        1.6729906900   -0.6524039300    0.5195950600
O        0.5109807300    2.4698701900   -0.4085471700
H        0.3315466100    2.2190512900    0.5148443100
H       -0.3673887800    2.4134615500   -0.8074500200
O       -0.6827980800   -1.0600911100   -1.6910658700
H       -1.2365823600   -0.3569800700   -1.3100595600
H        0.2034694100   -0.6650616700   -1.7257501600
O       -2.0652953700    1.0274557400   -0.2941914400
H       -1.6738033000    0.9723211500    0.6000474600
H       -3.0177645800    0.9960621500   -0.1674723100
