18
Hexamer_book *** C1
O        0.1269091900    1.5514340500    0.8829496400
H        0.9728435700    1.5174459900    0.3721583700
H        0.2850755300    2.1569331500    1.6127890800
O        2.4079368900    1.1949417000   -0.4759396200
H        2.4742511600    0.2105219400   -0.5079128000
H        2.5260850900    1.4877440800   -1.3834222500
O        2.2609354800   -1.4858280300   -0.4528140700
H        2.8790054400   -2.0621460400    0.0040623100
H        1.4069343400   -1.5723010600    0.0366776400
O       -2.4663449200   -1.3973844700   -0.4409969600
H       -2.5331376200   -0.4240025300   -0.5076321500
H       -3.2797118400   -1.6768681500   -0.0124216500
O       -2.3016778200    1.3648516400   -0.4444926500
H       -1.4411821300    1.5419767400   -0.0168919600
H       -2.2968441800    1.8839576700   -1.2529540200
O       -0.0357562900   -1.3673737500    0.9330547300
H       -0.0526208400   -0.4195736400    1.1355802800
H       -0.8840714000   -1.5214290200    0.4734029600
