42
n=14
O        0.1695090200   -3.6293354800   -1.4872954400
H        0.9877071900   -3.0665060300   -1.4735000400
H        0.3655871800   -4.3699069100   -2.0681164700
O       -1.5232339800    3.3662987800    1.2229873400
H       -2.1494713300    4.0366909800    1.5106470400
H       -1.5137980800    3.4016500500    0.2285592300
O       -1.3845039100    0.5927103300    1.3853593600
H       -1.5952055600    1.5360825100    1.5163808400
H       -0.4114317600    0.5223485800    1.5206123800
O       -2.2157552600   -2.0950006900   -1.6075983500
H       -1.4307401200   -2.6674500000   -1.6719466900
H       -2.4861180200   -2.1667155700   -0.6792332600
O        2.1506073300   -2.1725608700    1.6885076500
H        2.6963388400   -2.6199273000    2.3412904400
H        1.2984637000   -2.6819676300    1.6435558000
O        1.3344805700    3.2799630400    1.3357060800
H        0.3838955400    3.4235347100    1.4821874100
H        1.4803608500    2.3528338100    1.5910253400
O        1.5858987400    3.3588920700   -1.3273511400
H        2.2163939200    4.0165361300   -1.6343150000
H        1.5883111200    3.4112522600   -0.3369627800
O        1.3287525700    0.4589164300    1.3980818500
H        1.7054359400   -0.3952663200    1.6837548200
H        1.4397470100    0.4615417000    0.4208341900
O       -1.2997502200    0.4603581400   -1.4159304200
H       -1.4071136000    0.4825438400   -0.4440416100
H       -1.6754185400   -0.4158068600   -1.6636985800
O       -2.4797018800   -1.8794425900    1.3054187500
H       -2.2085634200   -0.9469765600    1.4519810500
H       -3.2143538100   -2.0383572400    1.9050281200
O        2.3162138700   -2.0857136400   -1.1850981600
H        2.4747099900   -2.1141888000   -0.2267924700
H        2.1451123400   -1.1460762900   -1.3770526100
O       -0.1305279500   -3.4756633000    1.3087126000
H       -0.0949425800   -3.7086415100    0.3635330400
H       -0.9541287700   -2.9658891900    1.4050030200
O       -1.2689934200    3.2576182100   -1.4200889100
H       -0.3200492700    3.3983356700   -1.5801099400
H       -1.4211131700    2.3265242200   -1.6623721600
O        1.4162833600    0.5571614300   -1.3456394100
H        0.4462495900    0.4980531100   -1.5065949500
H        1.6497699700    1.4805792000   -1.5474786600
