45
n=15
O       -0.4103772800    3.0633855700   -2.1945393500
H       -1.1022572200    3.1570022900   -1.5032240200
H       -0.5586820100    3.7813524100   -2.8168619400
O       -0.3421488200    0.2008741500   -2.2986385100
H        0.5267842000    0.1005135300   -1.8457660000
H       -0.3680415300    1.1300653300   -2.5760186600
O       -2.2319628800    3.0129735300   -0.1441057700
H       -2.9217985100    3.6629456200    0.0195458300
H       -1.7381828600    2.9228598600    0.7184895500
O       -2.3672760100   -2.7323516100   -0.3044899700
H       -2.6797070500   -1.8168147500   -0.3580288900
H       -1.7398000200   -2.8058468300   -1.0579173600
O        1.6077545700   -0.0674556000    1.6460810300
H        0.6332562200   -0.0745382500    1.7891448100
H        1.8884471600    0.8295623800    1.8943229400
O       -2.3025059600    0.1489773700   -0.4048129200
H       -2.5851410100    1.0769266000   -0.3728292300
H       -1.6088363100    0.1389278400   -1.1040341900
O       -1.1478198300   -2.9921122500    2.0161435500
H       -1.6321851800   -2.9775409800    1.1432474700
H       -1.5711253600   -3.6759695200    2.5430125400
O        2.1316168200    2.6619389400   -0.9406360500
H        1.3028164400    2.8772147200   -1.4018530700
H        2.3015582100    1.7301295800   -1.1610035600
O        2.0386312200   -0.1491092200   -1.0375093100
H        2.2902706600   -1.0641371000   -1.2577787100
H        1.8924785100   -0.1632379800   -0.0634348000
O       -1.0795906100   -0.1922393000    2.0045161300
H       -1.5313924600   -0.1223703800    1.1321259200
H       -1.2128235800   -1.1184831100    2.2758310400
O       -0.5412931800   -2.6911803000   -2.3623771700
H       -0.5310158000   -1.7651712500   -2.6461776200
H        0.3645264300   -2.8559502800   -2.0480820000
O        1.6049338000   -2.9109083700    1.4023741100
H        1.8090903400   -2.0075136200    1.6916460700
H        0.6703117000   -3.0385142500    1.6517182600
O        1.8743887800    2.7430068900    1.7112356200
H        2.4818782900    3.3797257200    2.0982861500
H        2.0108063700    2.7919394300    0.7291689100
O       -0.9106223000    2.6194309100    2.1067072800
H       -1.0203825200    1.6832494000    2.3446793800
H        0.0536261300    2.7488922000    2.0384985300
O        2.0724812200   -2.9408425800   -1.2213811700
H        1.9156685500   -3.0256314500   -0.2448801100
H        2.7112040200   -3.6229340500   -1.4473127700
