48
n=16 (TIP3P isomer)
O        2.2521009800    2.8405604000    0.9230489300
H        1.3957883200    3.2190250900    1.1771208500
H        2.3315207500    3.0479290900   -0.0255649900
O        1.5356244900   -3.4061192300   -0.5685930900
H        0.6682224500   -3.8007770700   -0.3726619100
H        1.8998899100   -3.1884585900    0.3037448600
O       -1.5318096700   -0.1475641200   -1.1585481600
H       -0.6146819300   -0.4696862500   -1.3238420900
H       -1.6824220000    0.5372364200   -1.8383734300
O        1.3230287100    1.2249104300   -3.2269004800
H        1.3589835700    0.4031410500   -2.7008538500
H        0.3742576000    1.3873007000   -3.3544773100
O       -2.8496491000   -2.3324981900   -0.0125078500
H       -2.5175089000   -1.5849935500   -0.5437295800
H       -2.9049615400   -1.9792920500    0.8902097700
O        2.1818017800   -2.2297800200    2.0280037000
H        2.0953975600   -1.2771047400    1.7933391300
H        2.9559356900   -2.2942004700    2.5947728100
O       -1.1467467600    0.7499970000    1.3774224000
H       -1.6285335100    0.1217231000    1.9514929400
H       -1.3786957300    0.4850484500    0.4563207000
O        1.0890552000   -0.8428504400   -1.3842755200
H        1.3748057300   -0.4345286400   -0.5405952500
H        1.2758859500   -1.8008918000   -1.2515351800
O       -0.5901475500    3.9479110500   -1.4356363300
H       -0.6778837800    3.8208929500   -0.4748981700
H        0.3705861100    3.9392718400   -1.5947336600
O       -0.3958374400   -3.1611097900    2.7444352200
H       -0.5781490300   -3.7239452300    1.9709272900
H        0.5144682400   -2.8424829900    2.6068062800
O       -1.0517076300   -4.2972053000    0.2422356600
H       -1.4370797900   -5.1438124700   -0.0015254800
H       -1.7500332500   -3.6164644700    0.0616693800
O        1.5669409400    0.2305242400    1.1300404700
H        1.9532450200    1.1386817200    1.0968525700
H        0.6223745200    0.3864806400    1.3386421700
O        2.1424153200    3.3594256400   -1.8633128300
H        2.8232971300    3.8260372400   -2.3567762500
H        1.9270512600    2.5478684800   -2.3956604900
O       -1.4683569200    1.9515041800   -2.9743049700
H       -1.2352841000    2.7360265800   -2.4135393400
H       -2.1169755700    2.2607892800   -3.6132300600
O       -2.3523339000   -1.3664517500    2.6735058500
H       -1.6122651600   -2.0202849900    2.7916706700
H       -2.8798875800   -1.4123427300    3.4761972500
O       -0.5788071200    3.3961268000    1.3601395000
H       -0.9013873700    2.4757541500    1.4864519200
H       -1.0552701600    3.9349534200    1.9983174300
