51
L-shape isomer
O 0.23692669 -4.65683721 0.48774215
H -0.51925947 -4.31137465 1.03257353
H 0.41856682 -5.54767870 0.79964933
O -2.08586139 -0.05117740 0.04583617
H -1.50756298 0.28226837 -0.67576496
H -2.50701356 -0.85944526 -0.30189210
O 3.57542689 0.17848797 -1.39307975
H 4.46764291 0.24313009 -1.74576954
H 3.67350147 -0.03196931 -0.42827831
O 1.54422957 -2.21962678 0.54684888
H 1.29549099 -3.16244212 0.56351294
H 1.37067696 -1.91517279 -0.36731664
O 1.16595877 -1.22238147 -2.02560843
H 2.05251088 -0.82228813 -2.06847549
H 0.55256907 -0.47502704 -2.14975084
O -0.57175754 3.55391445 2.10626722
H -1.39115075 3.18839567 1.68000593
H -0.87411109 4.03719665 2.88085344
O -1.76131856 -3.43767851 1.74722883
H -2.32962276 -3.17202142 1.00434061
H -1.40135001 -2.59813718 2.08528286
O -0.63093208 -3.48491822 -1.94302346
H -0.23829063 -4.03664137 -1.24468989
H 0.04495724 -2.82066258 -2.15250417
O -0.45520628 1.05871738 -1.83625961
H 0.30663738 1.47711374 -1.36797287
H -0.97787375 1.81828666 -2.14816799
O 0.29947130 4.50820655 -0.44394424
H 0.06150883 4.39973198 0.49330177
H 0.98230459 3.82762475 -0.57671799
O -2.86315640 -2.59367438 -0.76458985
H -2.08742294 -2.92276141 -1.28622298
H -3.64710413 -2.87417039 -1.24542095
O 3.47461432 -0.34625855 1.22144547
H 2.94262697 0.30871211 1.69912297
H 2.90241444 -1.13387509 1.17616012
O -2.65823268 2.60253978 0.73991459
H -2.56743584 2.96397951 -0.15815229
H -2.64863471 1.63809077 0.60365680
O 1.21442507 1.36709466 2.01026056
H 0.60933196 0.60337976 2.13396618
H 0.67766394 2.14516345 2.24988227
O -1.77828582 3.54903590 -1.82004078
H -2.15107605 4.18713341 -2.43497442
H -1.01812491 4.00751351 -1.37534830
O 1.68793160 2.08055151 -0.57030338
H 2.46208845 1.61030075 -0.92691453
H 1.59018131 1.77711776 0.36267192
O -0.38604848 -0.89729623 2.02255122
H -1.00819445 -0.57102949 1.33531575
H 0.29367122 -1.38422097 1.51134834
