57
n=19 (Interior)
O       -1.7899161000    1.5132126900   -1.1784655500
H       -2.6316024200    1.0233653700   -1.0989500200
H       -1.1535574600    0.9327687000   -0.6952313000
O        0.0325622200   -0.0054076700    0.1300535500
H       -0.3533265000   -0.6904556500    0.7196633500
H        0.4682971200    0.6286440500    0.7398692900
O       -0.8536315200   -1.9514264700    1.8784674300
H       -1.0748933100   -2.7581642400    1.3733031200
H        0.0208970900   -2.1352837500    2.2744087300
O        1.0652075700    1.8375696700    1.9195356100
H        1.2306421800    2.6650511600    1.4292090700
H        0.2256841200    1.9921409400    2.3957081100
O        1.7364163900   -1.5193611000   -1.4195390300
H        2.5854666200   -1.0446270200   -1.4008528700
H        1.1570690600   -0.9515636700   -0.8661196700
O       -2.2774461500   -2.1516317400   -1.6504396100
H       -1.5943376700   -1.8604718300   -2.2953463600
H       -1.8659771200   -2.8581871600   -1.1247152100
O       -1.5514469500    2.2153727300    2.7898161000
H       -1.8791171600    2.4758235600    3.6556551600
H       -2.0640959000    1.3942892500    2.5498794600
O        1.8208097800   -2.3816384000    2.5093453600
H        2.2214160100   -2.6886755800    3.3278897500
H        2.3192241500   -1.5550433300    2.2661834500
O        2.0889426000    2.2508957400   -1.7846121600
H        1.7351091600    2.9135680200   -1.1653623700
H        1.3453335200    2.0085273300   -2.3645810600
O       -3.7402311500   -0.3084112000   -0.5260198400
H       -4.6583780900   -0.4510429400   -0.7730443300
H       -3.2243912800   -1.0553702900   -0.9480278000
O       -2.8343448800   -0.0022351400    2.1490838000
H       -3.2407652100   -0.0869287200    1.2670333100
H       -2.2121037800   -0.7498634200    2.1981487600
O        3.0644029900   -0.1277718400    1.8738246600
H        3.3740442000    0.0125655400    0.9607175600
H        2.4558192100    0.6139933600    2.0358330800
O       -1.0913206800   -4.0463115300    0.0957093600
H       -1.3978525500   -4.9568184500    0.1275524200
H       -0.0965830300   -4.0839069500    0.0271501800
O        1.1032468000    4.0093731600    0.1857900900
H        0.1063755300    4.0338963900    0.2322053000
H        1.4025885900    4.9206618500    0.2504931300
O        3.7150526700    0.3694788300   -0.8550362100
H        4.6049900900    0.5574497700   -1.1664711400
H        3.1462371700    1.1022305300   -1.2082922800
O       -1.5065044100    3.7685859000    0.4042470600
H       -1.6483110500    3.3699368700    1.2808596800
H       -1.7210418500    3.0390648100   -0.2121790600
O        1.5327943500   -3.8424870400    0.0553057100
H        1.7639927900   -3.4832359200    0.9286120300
H        1.7069705700   -3.0913696700   -0.5493906800
O       -0.2082596600    1.5673887800   -3.3445833000
H       -0.9155577600    1.6226946100   -2.6599638100
H       -0.4749962000    2.1587501200   -4.0544700900
O       -0.2920580500   -1.3268085400   -3.3625170700
H       -0.2833036800   -0.3713028100   -3.5303418500
H        0.5282646900   -1.4708496200   -2.8580904900
