24
Octamer *** D2d
O       -1.4696676900    1.4696676900    1.3432660000
H       -2.1046416200    2.1046416200    1.6860560900
H       -1.5239884400    1.5239884400    0.3538354300
O        1.4696676900   -1.4696676900    1.3432660000
H        2.1046416200   -2.1046416200    1.6860560900
H        1.5239884400   -1.5239884400    0.3538354300
O        1.4696676900    1.4696676900   -1.3432660000
H        2.1046416200    2.1046416200   -1.6860560900
H        1.5239884400    1.5239884400   -0.3538354300
O       -1.4696676900   -1.4696676900   -1.3432660000
H       -2.1046416200   -2.1046416200   -1.6860560900
H       -1.5239884400   -1.5239884400   -0.3538354300
O       -1.3656541200    1.3656541200   -1.3209083500
H       -0.4234097200    1.5104321100   -1.5162900300
H       -1.5104321100    0.4234097200   -1.5162900300
O        1.3656541200   -1.3656541200   -1.3209083500
H        0.4234097200   -1.5104321100   -1.5162900300
H        1.5104321100   -0.4234097200   -1.5162900300
O        1.3656541200    1.3656541200    1.3209083500
H        1.5104321100    0.4234097200    1.5162900300
H        0.4234097200    1.5104321100    1.5162900300
O       -1.3656541200   -1.3656541200    1.3209083500
H       -1.5104321100   -0.4234097200    1.5162900300
H       -0.4234097200   -1.5104321100    1.5162900300
