9
Trimer *** C1
O        1.2956830000   -0.9516620000   -0.0929160000
H        1.2180380000    0.0174420000   -0.0220090000
H        1.9612360000   -1.2031270000    0.5526080000
O        0.1799080000    1.5942490000    0.1092800000
H        0.0932680000    2.2411200000   -0.5960560000
H       -0.6245030000    1.0466160000    0.0558830000
O       -1.4764020000   -0.6364520000   -0.0829570000
H       -2.0308010000   -1.0716240000    0.5698770000
H       -0.6107550000   -1.0795060000   -0.0275530000
