18
Book-2 from Bates and Tschumper, JPCA 2009
O 2.4032053362 1.3270659373 -0.4231241288
O 2.0682038153 -1.4035016261 -0.6521599818
O -0.1643579518 -1.5595899492 1.0026524632
O -2.3181617136 -1.1551868762 -0.5453543706
O -2.0641196909 1.5200844007 -0.4985515003
O 0.0821770896 1.3511908817 1.1316718732
H 3.2824705291 1.5275529981 -0.0914460180
H 2.4010102640 0.3610726372 -0.5799178960
H -1.8529134608 2.0431806726 -1.2764401766
H -1.2682598521 1.5827252635 0.0837206366
H 0.0581169390 0.4025609972 1.3290652908
H 0.9279954625 1.4655873732 0.6566010635
H -3.2290937865 -1.3858096501 -0.3443798320
H -2.3092654357 -0.1705337451 -0.6170936879
H 1.8644694205 -1.8074627322 -1.5001929598
H 1.2809613207 -1.5678898278 -0.0972909741
H -1.0129241853 -1.5230335341 0.4985855505
H -0.2826661794 -2.2325735230 1.6787417375
