9
MP2-haTZ optimized water trimer
O        0.0051582900   -0.0677834900   -0.0138276300
H       -0.3579651900    0.0174955300    0.8715160700
H        0.9712916600   -0.1059538900    0.1027923600
O        0.5660231500   -2.3198759800   -1.5537252800
H        0.0675613200   -1.6205292600   -1.0929537000
H        0.2599183500   -2.2911210100   -2.4641379900
O        2.6514091800   -0.8398536100   -0.4453806600
H        3.3262490200   -1.3095922300    0.0513453000
H        2.1744432200   -1.5250610600   -0.9484374700
