48
n=16 (AABB isomer)
O        1.4140665100    1.4789830600    1.3408033900
H        1.4968607600    1.4504412200    0.3622386400
H        1.6206425100    2.4020770400    1.5717860500
O       -1.4140665100   -1.4789830600    1.3408033900
H       -1.6206425100   -2.4020770400    1.5717860500
H       -1.4968607600   -1.4504412200    0.3622386400
O        1.3900081600   -4.1591845000    1.2795149200
H        0.4524502800   -4.2880419200    1.5063041000
H        1.5766993800   -3.2399789700    1.5318384100
O        1.3340099400   -1.3219772000    1.4142007000
H        1.5999552200   -0.4247923000    1.6754588700
H        0.3547725300   -1.3260018200    1.4942852500
O       -1.3340099400   -1.3219772000   -1.4142007000
H       -1.5999552200   -0.4247923000   -1.6754588700
H       -0.3547725300   -1.3260018200   -1.4942852500
O        1.3900081600    4.1591845000   -1.2795149200
H        0.4524502800    4.2880419200   -1.5063041000
H        1.5766993800    3.2399789700   -1.5318384100
O       -1.4580107300    4.2884440600   -1.3871661100
H       -1.5204367200    4.3289272800   -0.3977033500
H       -2.0515850700    4.9666404900   -1.7220990100
O        1.4580107300   -4.2884440600   -1.3871661100
H        2.0515850700   -4.9666404900   -1.7220990100
H        1.5204367200   -4.3289272800   -0.3977033500
O       -1.4580107300   -4.2884440600    1.3871661100
H       -1.5204367200   -4.3289272800    0.3977033500
H       -2.0515850700   -4.9666404900    1.7220990100
O       -1.3900081600    4.1591845000    1.2795149200
H       -0.4524502800    4.2880419200    1.5063041000
H       -1.5766993800    3.2399789700    1.5318384100
O        1.4140665100   -1.4789830600   -1.3408033900
H        1.4968607600   -1.4504412200   -0.3622386400
H        1.6206425100   -2.4020770400   -1.5717860500
O       -1.4140665100    1.4789830600   -1.3408033900
H       -1.6206425100    2.4020770400   -1.5717860500
H       -1.4968607600    1.4504412200   -0.3622386400
O        1.4580107300    4.2884440600    1.3871661100
H        1.5204367200    4.3289272800    0.3977033500
H        2.0515850700    4.9666404900    1.7220990100
O       -1.3900081600   -4.1591845000   -1.2795149200
H       -0.4524502800   -4.2880419200   -1.5063041000
H       -1.5766993800   -3.2399789700   -1.5318384100
O        1.3340099400    1.3219772000   -1.4142007000
H        1.5999552200    0.4247923000   -1.6754588700
H        0.3547725300    1.3260018200   -1.4942852500
O       -1.3340099400    1.3219772000    1.4142007000
H       -0.3547725300    1.3260018200    1.4942852500
H       -1.5999552200    0.4247923000    1.6754588700
