60
n=20 Dodecahedron *** C1
O        2.2136367100    3.1969170500    0.6872185000
H        1.4886004100    3.2399823900    1.3512781500
H        2.7518179700    3.9804180000    0.8360942500
O        3.6505736500    0.7295722000    0.8821330300
H        3.1806082100    1.5749092800    0.7964071800
H        3.5958127800    0.3039253900   -0.0037538900
O        0.1237899300    3.1071840600    2.4252905100
H       -0.0280652800    3.7788840100    3.0971315400
H       -0.7282247600    3.0580614900    1.9036702400
O        1.0425564800    3.1129365600   -1.8983251800
H        1.4986044500    3.1017706500   -1.0393479900
H        1.3754527100    2.3418777800   -2.3986040200
O        2.6603903100   -0.7864439100    2.7650051900
H        3.3631055100   -0.9293796100    3.4060301000
H        3.0626311500   -0.2090658600    2.0519125900
O        0.3613821400    0.5517087800    3.7109584400
H        1.1791460900    0.1162877400    3.4087815900
H        0.3415773000    1.4089786900    3.2547782800
O        3.4467718600   -0.5440373600   -1.5131023200
H        3.0123954600   -1.4040233900   -1.3893127200
H        2.9149693900   -0.0799875700   -2.1842861000
O       -2.0920552800    2.9682473800    1.0388114000
H       -1.9588663100    3.0707972200    0.0759902500
H       -2.6151602100    2.1545616600    1.1490255700
O        1.8497087600    0.8870917700   -3.3537386200
H        1.0329004600    0.3368997100   -3.5311523600
H        2.2358211500    1.0593669000   -4.2176486100
O       -1.5754318100    3.1846994400   -1.6777424700
H       -1.8707571400    3.9685938100   -2.1505393300
H       -0.5825240700    3.1708416900   -1.7796092300
O        1.6095425900   -3.0429075300    1.5303630500
H        0.6584284900   -3.0774967800    1.7454591600
H        1.9671062000   -2.2666373000    2.0050708400
O       -1.8474976800   -0.9291685400    3.1693661200
H       -2.4236684000   -0.3743482200    2.6189068100
H       -1.0636995800   -0.3719075900    3.3843648100
O        2.2251362400   -3.0941385000   -0.9983746900
H        2.8822718100   -3.7910573300   -1.0897760900
H        1.9901708200   -3.0794830300   -0.0227585400
O       -3.5776489500    0.6004291600    1.4650568400
H       -4.4476521500    0.7483834000    1.8483174500
H       -3.7308728000    0.0569763900    0.6577130700
O       -0.2918808000   -0.5646166800   -3.7525941500
H       -0.2528020300   -1.4208682800   -3.2962561600
H       -1.1057389700   -0.1232475400   -3.4207271200
O       -2.4897104600    0.7376511500   -2.7847075000
H       -2.2230773100    1.5842305100   -2.3853402100
H       -2.9389841100    0.2435892500   -2.0795963800
O       -1.1476829100   -3.1561958200    2.0154729500
H       -1.4311472900   -3.8691698000    2.5957209500
H       -1.4273760100   -2.3095149600    2.4763395700
O       -0.0892158500   -3.0804293000   -2.3943807000
H       -0.1358667000   -3.8392774200   -2.9839814600
H        0.7793454800   -3.1544433700   -1.9332129300
O       -3.7617814200   -0.8892322000   -0.7912714100
H       -4.5983229100   -1.2253700700   -1.1273754100
H       -3.1725712600   -1.6938884800   -0.6995417000
O       -2.2190071600   -2.9826002100   -0.5408127700
H       -1.4676316600   -3.0314990600   -1.1587816500
H       -1.8395747500   -3.1007258800    0.3523298000
